[Format]      =  4.0
[Frequency]   =  0
[Precision]   =  1e-008
[MinAngle]    =  30
[Depth]       =  76
[LengthUnits] =  millimeters
[ProblemType] =  planar
[Coordinates] =  cartesian
[Comment]     =  "Add comments here."
[PointProps]   = 0
[BdryProps]   = 1
  <BeginBdry>
    <BdryName> = "A=0"
    <BdryType> = 0
    <A_0> = 0
    <A_1> = 0
    <A_2> = 0
    <Phi> = 0
    <c0> = 0
    <c1> = 0
    <Mu_ssd> = 0
    <Sigma_ssd> = 0
  <EndBdry>
[BlockProps]  = 4
  <BeginBlock>
    <BlockName> = "Air"
    <Mu_x> = 1
    <Mu_y> = 1
    <H_c> = 0
    <H_cAngle> = 0
    <J_re> = 0
    <J_im> = 0
    <Sigma> = 0
    <d_lam> = 0
    <Phi_h> = 0
    <Phi_hx> = 0
    <Phi_hy> = 0
    <LamType> = 0
    <LamFill> = 1
    <NStrands> = 0
    <WireD> = 0
    <BHPoints> = 0
  <EndBlock>
  <BeginBlock>
    <BlockName> = "NdFeB 32 MGOe"
    <Mu_x> = 1.0449999999999999
    <Mu_y> = 1.0449999999999999
    <H_c> = 883310
    <H_cAngle> = 0
    <J_re> = 0
    <J_im> = 0
    <Sigma> = 0.69399999999999995
    <d_lam> = 0
    <Phi_h> = 0
    <Phi_hx> = 0
    <Phi_hy> = 0
    <LamType> = 0
    <LamFill> = 1
    <NStrands> = 0
    <WireD> = 0
    <BHPoints> = 0
  <EndBlock>
  <BeginBlock>
    <BlockName> = "M-19 Steel"
    <Mu_x> = 4416
    <Mu_y> = 4416
    <H_c> = 0
    <H_cAngle> = 0
    <J_re> = 0
    <J_im> = 0
    <Sigma> = 0
    <d_lam> = 0
    <Phi_h> = 0
    <Phi_hx> = 0
    <Phi_hy> = 0
    <LamType> = 0
    <LamFill> = 1
    <NStrands> = 0
    <WireD> = 0
    <BHPoints> = 13
      0	0
      0.29999999999999999	39.78875
      0.80000000000000004	79.577500000000001
      1.1200000000000001	159.155
      1.3200000000000001	318.31
      1.46	795.77499999999998
      1.54	1591.55
      1.6187499999999999	3376.6669999999999
      1.74	7957.75
      1.8700000000000001	15915.5
      1.99	31831
      2.0459640000000001	55102.040000000001
      2.0800000000000001	79577.5
  <EndBlock>
  <BeginBlock>
    <BlockName> = "iron"
    <Mu_x> = 2500
    <Mu_y> = 2500
    <H_c> = 0
    <H_cAngle> = 0
    <J_re> = 0
    <J_im> = 0
    <Sigma> = 0
    <d_lam> = 0
    <Phi_h> = 0
    <Phi_hx> = 0
    <Phi_hy> = 0
    <LamType> = 0
    <LamFill> = 1
    <NStrands> = 0
    <WireD> = 0
    <BHPoints> = 0
  <EndBlock>
[CircuitProps]  = 0
[NumPoints] = 164
95	0	0	0
-95	0	0	0
77.754855153874473	2.6499999999999999	0	0
60.542030854605457	2.6499999999999999	0	0
60.542030854605457	-2.6499999999999999	0	0
77.754855153874473	-2.6499999999999999	0	0
76.113416519059456	16.111729447708779	0	0
59.162093697902407	13.12275387563966	0	0
60.082429039537132	7.9032727846749564	0	0
77.033751860694196	10.89224835674408	0	0
72.159310238559982	29.08391214907741	0	0
55.984546261652511	23.196779515201879	0	0
57.79725302127855	18.216408625036561	0	0
73.972016998186035	24.103541258912099	0	0
66.012679830834685	41.17239489696599	0	0
51.105936716789643	32.565982747331489	0	0
53.755936716789641	27.976048107273961	0	0
68.662679830834691	36.582460256908469	0	0
57.860287550477238	52.009875260147354	0	0
44.674499145638897	40.945685072865842	0	0
48.08127347697755	36.885649524335257	0	0
61.267061881815891	47.949839711616768	0	0
47.949839711616782	61.267061881815891	0	0
36.885649524335257	48.08127347697755	0	0
40.945685072865842	44.674499145638897	0	0
52.009875260147361	57.860287550477238	0	0
36.582460256908483	68.662679830834676	0	0
27.976048107273979	53.755936716789627	0	0
32.565982747331503	51.105936716789628	0	0
41.172394896965997	66.012679830834671	0	0
24.103541258912109	73.972016998186021	0	0
18.216408625036571	57.797253021278543	0	0
23.196779515201879	55.984546261652497	0	0
29.08391214907742	72.159310238559968	0	0
10.89224835674408	77.033751860694196	0	0
7.9032727846749609	60.082429039537132	0	0
13.12275387563966	59.162093697902407	0	0
16.11172944770879	76.113416519059456	0	0
-2.649999999999995	77.754855153874473	0	0
-2.6499999999999959	60.542030854605457	0	0
2.6500000000000039	60.542030854605457	0	0
2.6500000000000048	77.754855153874473	0	0
-16.111729447708779	76.113416519059456	0	0
-13.12275387563966	59.162093697902407	0	0
-7.9032727846749538	60.082429039537132	0	0
-10.89224835674408	77.033751860694196	0	0
-29.08391214907741	72.159310238559982	0	0
-23.196779515201879	55.984546261652511	0	0
-18.216408625036561	57.79725302127855	0	0
-24.103541258912099	73.972016998186035	0	0
-41.172394896965983	66.012679830834685	0	0
-32.565982747331482	51.105936716789643	0	0
-27.97604810727395	53.755936716789627	0	0
-36.582460256908462	68.662679830834691	0	0
-52.009875260147361	57.860287550477238	0	0
-40.945685072865842	44.674499145638897	0	0
-36.885649524335257	48.08127347697755	0	0
-47.949839711616782	61.267061881815891	0	0
-61.267061881815877	47.949839711616789	0	0
-48.081273476977543	36.885649524335271	0	0
-44.67449914563889	40.945685072865849	0	0
-57.860287550477231	52.009875260147368	0	0
-68.662679830834691	36.582460256908469	0	0
-53.755936716789641	27.976048107273961	0	0
-51.105936716789643	32.565982747331489	0	0
-66.012679830834685	41.17239489696599	0	0
-73.972016998186021	24.10354125891212	0	0
-57.797253021278543	18.216408625036571	0	0
-55.984546261652497	23.196779515201879	0	0
-72.159310238559968	29.083912149077431	0	0
-77.033751860694196	10.892248356744069	0	0
-60.082429039537132	7.903272784674952	0	0
-59.162093697902407	13.122753875639649	0	0
-76.113416519059456	16.111729447708779	0	0
-77.754855153874473	-2.649999999999991	0	0
-60.542030854605457	-2.6499999999999919	0	0
-60.542030854605457	2.6500000000000079	0	0
-77.754855153874473	2.6500000000000088	0	0
-76.113416519059456	-16.11172944770879	0	0
-59.162093697902407	-13.12275387563967	0	0
-60.082429039537132	-7.9032727846749644	0	0
-77.033751860694196	-10.892248356744091	0	0
-72.159310238559982	-29.08391214907741	0	0
-55.984546261652511	-23.196779515201872	0	0
-57.79725302127855	-18.216408625036561	0	0
-73.972016998186035	-24.103541258912099	0	0
-66.012679830834671	-41.172394896965997	0	0
-51.105936716789628	-32.565982747331503	0	0
-53.755936716789627	-27.976048107273979	0	0
-68.662679830834676	-36.582460256908483	0	0
-57.860287550477238	-52.009875260147354	0	0
-44.674499145638897	-40.945685072865842	0	0
-48.08127347697755	-36.885649524335257	0	0
-61.267061881815891	-47.949839711616768	0	0
-47.949839711616789	-61.267061881815877	0	0
-36.885649524335271	-48.081273476977543	0	0
-40.945685072865849	-44.67449914563889	0	0
-52.009875260147368	-57.860287550477231	0	0
-36.582460256908512	-68.662679830834662	0	0
-27.976048107274	-53.75593671678962	0	0
-32.565982747331518	-51.105936716789607	0	0
-41.172394896966033	-66.012679830834657	0	0
-24.103541258912159	-73.972016998186007	0	0
-18.2164086250366	-57.797253021278543	0	0
-23.196779515201911	-55.98454626165249	0	0
-29.08391214907747	-72.159310238559954	0	0
-10.89224835674408	-77.033751860694196	0	0
-7.9032727846749564	-60.082429039537132	0	0
-13.12275387563966	-59.162093697902407	0	0
-16.111729447708779	-76.113416519059456	0	0
2.6499999999999861	-77.754855153874473	0	0
2.6499999999999888	-60.542030854605457	0	0
-2.650000000000011	-60.542030854605457	0	0
-2.6500000000000141	-77.754855153874473	0	0
16.11172944770875	-76.113416519059456	0	0
13.12275387563964	-59.162093697902407	0	0
7.9032727846749324	-60.082429039537139	0	0
10.89224835674405	-77.033751860694196	0	0
29.083912149077371	-72.159310238559982	0	0
23.19677951520184	-55.984546261652518	0	0
18.216408625036522	-57.797253021278557	0	0
24.10354125891206	-73.972016998186035	0	0
41.172394896965997	-66.012679830834671	0	0
32.565982747331503	-51.105936716789628	0	0
27.976048107273979	-53.755936716789627	0	0
36.582460256908483	-68.662679830834676	0	0
52.009875260147354	-57.860287550477253	0	0
40.945685072865842	-44.674499145638897	0	0
36.885649524335257	-48.081273476977557	0	0
47.949839711616768	-61.267061881815913	0	0
61.267061881815877	-47.949839711616796	0	0
48.081273476977543	-36.885649524335278	0	0
44.674499145638883	-40.945685072865857	0	0
57.860287550477217	-52.009875260147382	0	0
68.662679830834662	-36.582460256908512	0	0
53.75593671678962	-27.976048107274	0	0
51.105936716789607	-32.565982747331518	0	0
66.012679830834657	-41.172394896966033	0	0
73.972016998186035	-24.103541258912099	0	0
57.79725302127855	-18.21640862503655	0	0
55.984546261652511	-23.196779515201872	0	0
72.159310238559982	-29.08391214907741	0	0
77.033751860694181	-10.892248356744149	0	0
60.082429039537132	-7.9032727846750124	0	0
59.162093697902392	-13.12275387563972	0	0
76.113416519059442	-16.11172944770885	0	0
52.910626009080552	-24.954271284235311	0	0
-52.910626009080552	24.954271284235311	0	0
47.212558592718018	-22.266888222856121	0	0
-47.212558592718018	22.266888222856121	0	0
52.910626009080531	24.954271284235318	0	0
-52.910626009080531	-24.954271284235318	0	0
47.212558592718018	22.266888222856121	0	0
-47.212558592718018	-22.266888222856121	0	0
-24.954271284235318	-52.910626009080552	0	0
-22.266888222856139	-47.212558592718018	0	0
-22.266888222856121	47.212558592718018	0	0
-24.954271284235318	52.910626009080531	0	0
22.266888222856121	-47.212558592718018	0	0
24.954271284235318	-52.910626009080531	0	0
22.266888222856139	47.212558592718018	0	0
24.954271284235318	52.910626009080552	0	0
17.5	0	0	0
-17.5	0	0	0
[NumSegments] = 116
3	2	-1	0	0	0
4	5	-1	0	0	0
7	6	-1	0	0	0
8	9	-1	0	0	0
11	10	-1	0	0	0
12	13	-1	0	0	0
15	14	-1	0	0	0
16	17	-1	0	0	0
19	18	-1	0	0	0
20	21	-1	0	0	0
23	22	-1	0	0	0
24	25	-1	0	0	0
27	26	-1	0	0	0
28	29	-1	0	0	0
31	30	-1	0	0	0
32	33	-1	0	0	0
35	34	-1	0	0	0
36	37	-1	0	0	0
39	38	-1	0	0	0
40	41	-1	0	0	0
43	42	-1	0	0	0
44	45	-1	0	0	0
47	46	-1	0	0	0
48	49	-1	0	0	0
51	50	-1	0	0	0
52	53	-1	0	0	0
55	54	-1	0	0	0
56	57	-1	0	0	0
59	58	-1	0	0	0
60	61	-1	0	0	0
63	62	-1	0	0	0
64	65	-1	0	0	0
67	66	-1	0	0	0
68	69	-1	0	0	0
71	70	-1	0	0	0
72	73	-1	0	0	0
75	74	-1	0	0	0
76	77	-1	0	0	0
79	78	-1	0	0	0
80	81	-1	0	0	0
83	82	-1	0	0	0
84	85	-1	0	0	0
87	86	-1	0	0	0
88	89	-1	0	0	0
91	90	-1	0	0	0
92	93	-1	0	0	0
95	94	-1	0	0	0
96	97	-1	0	0	0
99	98	-1	0	0	0
100	101	-1	0	0	0
103	102	-1	0	0	0
104	105	-1	0	0	0
107	106	-1	0	0	0
108	109	-1	0	0	0
111	110	-1	0	0	0
112	113	-1	0	0	0
115	114	-1	0	0	0
116	117	-1	0	0	0
119	118	-1	0	0	0
120	121	-1	0	0	0
123	122	-1	0	0	0
124	125	-1	0	0	0
127	126	-1	0	0	0
128	129	-1	0	0	0
131	130	-1	0	0	0
132	133	-1	0	0	0
135	134	-1	0	0	0
136	137	-1	0	0	0
139	138	-1	0	0	0
140	141	-1	0	0	0
143	142	-1	0	0	0
144	145	-1	0	0	0
147	149	-1	0	0	1
152	150	-1	0	0	1
153	151	-1	0	0	1
148	146	-1	0	0	1
154	155	-1	0	0	1
156	157	-1	0	0	1
158	159	-1	0	0	1
160	161	-1	0	0	1
48	43	-1	0	0	0
39	44	-1	0	0	0
40	35	-1	0	0	0
36	31	-1	0	0	0
32	27	-1	0	0	0
28	23	-1	0	0	0
24	19	-1	0	0	0
11	16	-1	0	0	0
7	12	-1	0	0	0
8	3	-1	0	0	0
4	143	-1	0	0	0
144	139	-1	0	0	0
140	135	-1	0	0	0
136	131	-1	0	0	0
132	127	-1	0	0	0
128	123	-1	0	0	0
124	119	-1	0	0	0
120	115	-1	0	0	0
111	116	-1	0	0	0
107	112	-1	0	0	0
103	108	-1	0	0	0
104	99	-1	0	0	0
100	95	-1	0	0	0
96	91	-1	0	0	0
92	87	-1	0	0	0
88	83	-1	0	0	0
84	79	-1	0	0	0
75	80	-1	0	0	0
71	76	-1	0	0	0
67	72	-1	0	0	0
63	68	-1	0	0	0
59	64	-1	0	0	0
55	60	-1	0	0	0
51	56	-1	0	0	0
47	52	-1	0	0	0
20	15	-1	0	0	0
[NumArcSegments] = 88
0	1	180	2.5	1	0	0
1	0	180	2.5	1	0	0
74	81	6.0960619376181526	2.5	0	0	0
78	85	6.0960619376181189	2.5	0	0	0
82	89	6.0960619376181411	2.5	0	0	0
86	93	6.0960619376181198	2.5	0	0	0
90	97	6.0960619376181198	2.5	0	0	0
94	101	6.0960619376181047	2.5	0	0	0
98	105	6.0960619376181109	2.5	0	0	0
102	109	6.0960619376181571	2.5	0	0	0
106	113	6.0960619376181047	2.5	0	0	0
110	117	6.096061937618102	2.5	0	0	0
114	121	6.0960619376180976	2.5	0	0	0
118	125	6.09606193761815	2.5	0	0	0
122	129	6.0960619376181029	2.5	0	0	0
126	133	6.0960619376181038	2.5	0	0	0
130	137	6.096061937618102	2.5	0	0	0
134	141	6.0960619376181473	2.5	0	0	0
138	145	6.0960619376180434	2.5	0	0	0
142	5	6.0960619376181606	2.5	0	0	0
2	9	6.0960619376181384	2.5	0	0	0
6	13	6.0960619376181349	2.5	0	0	0
10	17	6.0960619376181402	2.5	0	0	0
14	21	6.0960619376181491	2.5	0	0	0
18	25	6.0960619376181393	2.5	0	0	0
22	29	6.0960619376181437	2.5	0	0	0
26	33	6.0960619376181411	2.5	0	0	0
30	37	6.0960619376181437	2.5	0	0	0
34	41	6.0960619376181402	2.5	0	0	0
38	45	6.0960619376181446	2.5	0	0	0
42	49	6.0960619376181411	2.5	0	0	0
46	53	6.0960619376181402	2.5	0	0	0
50	57	6.0960619376181624	2.5	0	0	0
54	61	6.0960619376181331	2.5	0	0	0
58	65	6.0960619376181677	2.5	0	0	0
62	69	6.0960619376181278	2.5	0	0	0
66	73	6.0960619376181571	2.5	0	0	0
70	77	6.0960619376181358	2.5	0	0	0
4	3	5.0126154555950979	2.5	0	0	0
8	7	5.0126154555950979	2.5	0	0	0
12	11	5.0126154555950979	2.5	0	0	0
16	15	5.0126154555950979	2.5	0	0	0
20	19	5.0126154555950979	2.5	0	0	0
24	23	5.0126154555950979	2.5	0	0	0
28	27	5.0126154555950979	2.5	0	0	0
32	31	5.0126154555950979	2.5	0	0	0
36	35	5.0126154555950979	2.5	0	0	0
40	39	5.0126154555950979	2.5	0	0	0
44	43	5.0126154555950979	2.5	0	0	0
48	47	5.0126154555950979	2.5	0	0	0
52	51	5.0126154555950979	2.5	0	0	0
56	55	5.0126154555950979	2.5	0	0	0
60	59	5.0126154555950979	2.5	0	0	0
64	63	5.0126154555950979	2.5	0	0	0
68	67	5.0126154555950979	2.5	0	0	0
72	71	5.0126154555950979	2.5	0	0	0
76	75	5.0126154555950979	2.5	0	0	0
80	79	5.0126154555950979	2.5	0	0	0
84	83	5.0126154555950979	2.5	0	0	0
88	87	5.0126154555950979	2.5	0	0	0
92	91	5.0126154555950979	2.5	0	0	0
96	95	5.0126154555950979	2.5	0	0	0
100	99	5.0126154555950979	2.5	0	0	0
104	103	5.0126154555950979	2.5	0	0	0
108	107	5.0126154555950979	2.5	0	0	0
112	111	5.0126154555950979	2.5	0	0	0
116	115	5.0126154555950979	2.5	0	0	0
120	119	5.0126154555950979	2.5	0	0	0
124	123	5.0126154555950979	2.5	0	0	0
128	127	5.0126154555950979	2.5	0	0	0
132	131	5.0126154555950979	2.5	0	0	0
136	135	5.0126154555950979	2.5	0	0	0
140	139	5.0126154555950979	2.5	0	0	0
144	143	5.0126154555950979	2.5	0	0	0
146	150	50.500000000000007	2.5	0	0	1
161	157	50.499999999999993	2.5	0	0	1
147	151	50.500000000000007	2.5	0	0	1
154	159	50.499999999999993	2.5	0	0	1
148	152	50.5	2.5	0	0	1
152	160	39.499999999999979	2.5	0	0	1
160	156	50.499999999999993	2.5	0	0	1
156	149	39.5	2.5	0	0	1
149	153	50.5	2.5	0	0	1
153	155	39.499999999999993	2.5	0	0	1
155	158	50.500000000000007	2.5	0	0	1
158	148	39.5	2.5	0	0	1
162	163	180	10	1	0	0
163	162	180	10	1	0	0
[NumHoles] = 1
0	0	1
[NumBlockLabels] = 43
55.000000000000007	-4.4408920985006262e-016	2	0.5	0	0	1	1	0
3.5527136788005009e-015	55.000000000000007	2	0.5	0	-90	1	1	0
-55.000000000000007	6.4392935428259079e-015	2	0.5	0	180	1	1	0
-1.043609643147647e-014	-55.000000000000007	2	0.5	0	90	1	1	0
-2.2204460492503131e-016	35	3	1	0	0	0	1	0
-5	68	1	1	0	0	0	1	0
2	87	3	1	0	0	0	1	0
-16.732114846412301	66.098686316495488	1	1	0	0	0	1	0
-27.955832850075009	62.188997496813428	1	1	0	0	0	1	0
-38.330127018922177	56.389727457341827	1	1	0	0	0	1	0
-47.539779674279558	48.877084083657813	1	1	0	0	0	1	0
-55.304960180523203	39.879335243089791	1	1	0	0	0	1	0
-61.389727457341827	29.66987298107782	1	1	0	0	0	1	0
-65.609198930070107	18.558906642215941	1	1	0	0	0	1	0
-67.835168093164796	6.8840373162902289	1	1	0	0	0	1	0
-68	-4.9999999999999956	1	1	0	0	0	1	0
-66.098686316495488	-16.732114846412301	1	1	0	0	0	1	0
-62.188997496813428	-27.955832850075009	1	1	0	0	0	1	0
-56.389727457341827	-38.330127018922177	1	1	0	0	0	1	0
-48.877084083657813	-47.539779674279572	1	1	0	0	0	1	0
-39.879335243089798	-55.304960180523203	1	1	0	0	0	1	0
-29.669872981077798	-61.389727457341827	1	1	0	0	0	1	0
-18.558906642215948	-65.609198930070107	1	1	0	0	0	1	0
-6.8840373162902182	-67.835168093164796	1	1	0	0	0	1	0
4.999999999999992	-68	1	1	0	0	0	1	0
16.732114846412308	-66.098686316495488	1	1	0	0	0	1	0
27.955832850075009	-62.188997496813428	1	1	0	0	0	1	0
38.330127018922198	-56.389727457341827	1	1	0	0	0	1	0
47.539779674279558	-48.877084083657813	1	1	0	0	0	1	0
55.304960180523203	-39.879335243089798	1	1	0	0	0	1	0
61.389727457341813	-29.669872981077841	1	1	0	0	0	1	0
65.609198930070107	-18.55890664221598	1	1	0	0	0	1	0
67.835168093164796	-6.8840373162902244	1	1	0	0	0	1	0
68	4.9999999999999876	1	1	0	0	0	1	0
66.098686316495503	16.73211484641228	1	1	0	0	0	1	0
62.188997496813442	27.95583285007498	1	1	0	0	0	1	0
56.389727457341827	38.330127018922198	1	1	0	0	0	1	0
48.87708408365782	47.539779674279558	1	1	0	0	0	1	0
39.879335243089812	55.304960180523182	1	1	0	0	0	1	0
29.669872981077841	61.389727457341813	1	1	0	0	0	1	0
18.55890664221592	65.609198930070121	1	1	0	0	0	1	0
6.8840373162902884	67.835168093164796	1	1	0	0	0	1	0
19.699999999999999	56.299999999999997	1	0.5	0	0	0	1	0
