[Format]      =  4.0
[Frequency]   =  0
[Precision]   =  1e-008
[MinAngle]    =  30
[Depth]       =  45
[LengthUnits] =  millimeters
[ProblemType] =  planar
[Coordinates] =  cartesian
[Comment]     =  "Add comments here."
[PointProps]   = 0
[BdryProps]   = 1
  <BeginBdry>
    <BdryName> = "Asymptotic Boundary Condition"
    <BdryType> = 2
    <A_0> = 0
    <A_1> = 0
    <A_2> = 0
    <Phi> = 0
    <c0> = 185680766.94054461
    <c0i> = 0
    <c1> = 0
    <c1i> = 0
    <Mu_ssd> = 0
    <Sigma_ssd> = 0
  <EndBdry>
[BlockProps]  = 5
  <BeginBlock>
    <BlockName> = "NdFeB 40 MGOe"
    <Mu_x> = 1.0489999999999999
    <Mu_y> = 1.0489999999999999
    <H_c> = 979000
    <H_cAngle> = 0
    <J_re> = 0
    <J_im> = 0
    <Sigma> = 0.66700000000000004
    <d_lam> = 0
    <Phi_h> = 0
    <Phi_hx> = 0
    <Phi_hy> = 0
    <LamType> = 0
    <LamFill> = 1
    <NStrands> = 0
    <WireD> = 0
    <BHPoints> = 0
  <EndBlock>
  <BeginBlock>
    <BlockName> = "Air"
    <Mu_x> = 1
    <Mu_y> = 1
    <H_c> = 0
    <H_cAngle> = 0
    <J_re> = 0
    <J_im> = 0
    <Sigma> = 0
    <d_lam> = 0
    <Phi_h> = 0
    <Phi_hx> = 0
    <Phi_hy> = 0
    <LamType> = 0
    <LamFill> = 1
    <NStrands> = 0
    <WireD> = 0
    <BHPoints> = 0
  <EndBlock>
  <BeginBlock>
    <BlockName> = "M-19 Steel"
    <Mu_x> = 4416
    <Mu_y> = 4416
    <H_c> = 0
    <H_cAngle> = 0
    <J_re> = 0
    <J_im> = 0
    <Sigma> = 1.8999999999999999
    <d_lam> = 0.35560000000000003
    <Phi_h> = 0
    <Phi_hx> = 0
    <Phi_hy> = 0
    <LamType> = 0
    <LamFill> = 0.97999999999999998
    <NStrands> = 0
    <WireD> = 0
    <BHPoints> = 47
      0	0
      0.050000000000000003	15.120714
      0.10000000000000001	22.718292000000002
      0.14999999999999999	27.842732999999999
      0.20000000000000001	31.871434000000001
      0.25	35.365043999999997
      0.29999999999999999	38.600588000000002
      0.34999999999999998	41.736201999999999
      0.40000000000000002	44.873978999999999
      0.45000000000000001	48.087806999999998
      0.5	51.437235999999999
      0.55000000000000004	54.975220999999998
      0.59999999999999998	58.752992999999996
      0.65000000000000002	62.823644000000002
      0.69999999999999996	67.245284999999996
      0.75	72.084406000000001
      0.80000000000000004	77.420100000000005
      0.84999999999999998	83.350020999999998
      0.90000000000000002	89.999611999999999
      0.94999999999999996	97.537352999999996
      1	106.20140600000001
      1.05	116.34846400000001
      1.1000000000000001	128.54732899999999
      1.1499999999999999	143.76543100000001
      1.2	163.75416899999999
      1.25	191.86815799999999
      1.3	234.833507
      1.3500000000000001	306.50976900000001
      1.3999999999999999	435.255202
      1.45	674.911968
      1.5	1108.3255690000001
      1.55	1813.085468
      1.6000000000000001	2801.2174209999998
      1.6499999999999999	4053.6531169999998
      1.7	5591.10689
      1.75	7448.318413
      1.8	9708.81567
      1.8500000000000001	12486.931615
      1.8999999999999999	16041.483644
      1.95	21249.420623999998
      2	31313.495878000002
      2.0499999999999998	53589.446877000002
      2.1000000000000001	88477.484601000004
      2.1499999999999999	124329.41054
      2.2000000000000002	159968.5693
      2.25	197751.604272
      2.2999999999999998	234024.75134700001
  <EndBlock>
  <BeginBlock>
    <BlockName> = "Wire"
    <Mu_x> = 1
    <Mu_y> = 1
    <H_c> = 0
    <H_cAngle> = 0
    <J_re> = 0
    <J_im> = 0
    <Sigma> = 58
    <d_lam> = 0
    <Phi_h> = 0
    <Phi_hx> = 0
    <Phi_hy> = 0
    <LamType> = 4
    <LamFill> = 1
    <NStrands> = 8
    <WireD> = 0.510714027632857
    <BHPoints> = 0
  <EndBlock>
  <BeginBlock>
    <BlockName> = "1018 Steel"
    <Mu_x> = 529
    <Mu_y> = 529
    <H_c> = 0
    <H_cAngle> = 0
    <J_re> = 0
    <J_im> = 0
    <Sigma> = 0
    <d_lam> = 0
    <Phi_h> = 0
    <Phi_hx> = 0
    <Phi_hy> = 0
    <LamType> = 0
    <LamFill> = 1
    <NStrands> = 0
    <WireD> = 0
    <BHPoints> = 13
      0	0
      0.25030000000000002	238.73249999999999
      0.92500000000000004	795.77499999999998
      1.25	1591.55
      1.3899999999999999	2387.3249999999998
      1.5249999999999999	3978.875
      1.71	7957.75
      1.8700000000000001	15915.5
      1.9550000000000001	23873.25
      2.02	39788.75
      2.1099999999999999	79577.5
      2.2250000000000001	159155
      2.4300000000000002	318310
  <EndBlock>
[CircuitProps]  = 3
  <BeginCircuit>
    <CircuitName> = "A"
    <TotalAmps_re> = 0
    <TotalAmps_im> = 0
    <CircuitType> = 1
  <EndCircuit>
  <BeginCircuit>
    <CircuitName> = "B"
    <TotalAmps_re> = 0
    <TotalAmps_im> = 0
    <CircuitType> = 1
  <EndCircuit>
  <BeginCircuit>
    <CircuitName> = "C"
    <TotalAmps_re> = 0
    <TotalAmps_im> = 0
    <CircuitType> = 1
  <EndCircuit>
[NumPoints] = 182
19.59849409241659	-3.9873586883439431	0	1
19.59849409241659	3.9873586883439422	0	1
18.128607035485345	-3.6883067867181465	0	1
18.128607035485345	3.6883067867181474	0	1
7	-2.2204460492503131e-016	0	1
-7	2.2204460492503131e-016	0	1
9.8868599666425947	1.5000000000000004	0	1
9.8868599666425947	-1.4999999999999991	0	1
18.439088914585771	1.5	0	1
18.439088914585774	-1.4999999999999991	0	1
13.855680834596541	12.258470891991141	0	1
14.979114415780042	13.252400964314745	0	1
17.543987621314685	5.8701361434942028	0	1
18.966473104123988	6.3460931281018418	0	1
7.8122718947718557	6.2424680889979545	0	1
15.218719422671313	10.518582562969542	0	1
9.3122718947718557	3.6443918776446385	0	1
16.71871942267131	7.9205063516162255	0	1
5.8701361434942054	17.543987621314685	0	1
6.3460931281018436	18.966473104123985	0	1
12.258470891991143	13.855680834596537	0	1
13.252400964314752	14.979114415780039	0	1
3.6443918776446398	9.3122718947718539	0	1
7.9205063516162291	16.71871942267131	0	1
6.242468088997958	7.812271894771853	0	1
10.518582562969542	15.218719422671308	0	1
-3.688306786718146	18.128607035485345	0	1
-3.9873586883439414	19.598494092416594	0	1
3.6883067867181474	18.128607035485345	0	1
3.9873586883439449	19.59849409241659	0	1
-1.4999999999999998	9.8868599666425947	0	1
-1.4999999999999991	18.439088914585771	0	1
1.5	9.8868599666425947	0	1
1.5	18.439088914585774	0	1
-12.258470891991138	13.855680834596541	0	1
-13.252400964314745	14.979114415780042	0	1
-5.8701361434942001	17.543987621314685	0	1
-6.3460931281018391	18.966473104123985	0	1
-6.2424680889979527	7.8122718947718557	0	1
-10.518582562969538	15.218719422671313	0	1
-3.6443918776446367	9.3122718947718557	0	1
-7.9205063516162237	16.71871942267131	0	1
-17.543987621314685	5.8701361434942019	0	1
-18.966473104123985	6.3460931281018409	0	1
-13.855680834596541	12.25847089199114	0	1
-14.979114415780039	13.252400964314743	0	1
-9.3122718947718539	3.644391877644638	0	1
-16.71871942267131	7.9205063516162273	0	1
-7.8122718947718539	6.2424680889979554	0	1
-15.218719422671313	10.51858256296954	0	1
-18.128607035485345	-3.6883067867181452	0	1
-19.598494092416594	-3.9873586883439405	0	1
-18.128607035485345	3.6883067867181492	0	1
-19.59849409241659	3.9873586883439449	0	1
-9.8868599666425947	-1.4999999999999991	0	1
-18.439088914585771	-1.4999999999999973	0	1
-9.8868599666425947	1.5000000000000009	0	1
-18.439088914585771	1.5000000000000018	0	1
-13.855680834596532	-12.258470891991141	0	1
-14.979114415780042	-13.25240096431475	0	1
-17.543987621314681	-5.8701361434942054	0	1
-18.966473104123981	-6.3460931281018453	0	1
-7.812271894771853	-6.2424680889979562	0	1
-15.21871942267131	-10.518582562969543	0	1
-9.3122718947718557	-3.6443918776446402	0	1
-16.718719422671313	-7.92050635161623	0	1
-5.8701361434942125	-17.543987621314681	0	1
-6.3460931281018516	-18.966473104123981	0	1
-12.258470891991148	-13.855680834596534	0	1
-13.252400964314756	-14.979114415780035	0	1
-3.6443918776446442	-9.3122718947718521	0	1
-7.9205063516162353	-16.718719422671306	0	1
-6.2424680889979598	-7.8122718947718504	0	1
-10.51858256296955	-15.218719422671304	0	1
3.6883067867181438	-18.128607035485345	0	1
3.9873586883439391	-19.598494092416594	0	1
-3.68830678671815	-18.128607035485345	0	1
-3.9873586883439467	-19.59849409241659	0	1
1.4999999999999987	-9.8868599666425947	0	1
1.4999999999999964	-18.439088914585771	0	1
-1.5000000000000009	-9.8868599666425947	0	1
-1.5000000000000036	-18.439088914585771	0	1
12.258470891991141	-13.855680834596532	0	1
13.25240096431475	-14.979114415780042	0	1
5.8701361434942054	-17.543987621314681	0	1
6.3460931281018453	-18.966473104123981	0	1
6.2424680889979562	-7.812271894771853	0	1
10.518582562969543	-15.21871942267131	0	1
3.6443918776446402	-9.3122718947718557	0	1
7.92050635161623	-16.718719422671313	0	1
17.543987621314681	-5.8701361434942125	0	1
18.966473104123981	-6.3460931281018516	0	1
13.855680834596534	-12.258470891991148	0	1
14.979114415780035	-13.252400964314756	0	1
9.3122718947718521	-3.6443918776446442	0	1
16.718719422671306	-7.9205063516162353	0	1
7.8122718947718504	-6.2424680889979598	0	1
15.218719422671304	-10.51858256296955	0	1
24	0	0	0
-24	0	0	0
20.706279240848655	3.5	0	0
22.732135843338611	3.5	0	0
20.706279240848655	-3.5	0	0
22.732135843338611	-3.5	0	0
17.137119879187324	12.137508897890154	0	0
18.962353608865342	13.016495135494488	0	0
20.174306053010227	5.8307268225732187	0	0
21.999539782688245	6.7097130601775525	0	0
10.173743752470234	18.371035301775262	0	0
11.436844684150904	19.954913772567629	0	0
15.646564129746441	14.006606688764126	0	0
16.909665061427113	15.590485159556493	0	0
1.1953329027975057	20.965952858181517	0	0
1.6461284060451371	22.941017006026811	0	0
8.019828288070272	19.408306320487313	0	0
8.4706237913179017	21.383370468332608	0	0
-8.0198282880702649	19.408306320487316	0	0
-8.4706237913178946	21.383370468332611	0	0
-1.1953329027974986	20.965952858181513	0	0
-1.6461284060451291	22.941017006026808	0	0
-15.646564129746432	14.006606688764135	0	0
-16.909665061427102	15.590485159556506	0	0
-10.173743752470221	18.371035301775265	0	0
-11.436844684150891	19.954913772567636	0	0
-20.174306053010227	5.8307268225732232	0	0
-21.999539782688245	6.709713060177557	0	0
-17.137119879187317	12.137508897890157	0	0
-18.962353608865335	13.016495135494491	0	0
-20.706279240848659	-3.4999999999999885	0	0
-22.732135843338614	-3.4999999999999871	0	0
-20.706279240848652	3.5000000000000115	0	0
-22.732135843338607	3.5000000000000129	0	0
-17.137119879187328	-12.137508897890145	0	0
-18.962353608865346	-13.016495135494479	0	0
-20.17430605301023	-5.8307268225732098	0	0
-21.999539782688249	-6.7097130601775437	0	0
-10.173743752470235	-18.371035301775262	0	0
-11.436844684150905	-19.954913772567629	0	0
-15.646564129746443	-14.006606688764126	0	0
-16.909665061427113	-15.590485159556493	0	0
-1.195332902797527	-20.965952858181517	0	0
-1.6461284060451602	-22.941017006026811	0	0
-8.0198282880702898	-19.408306320487306	0	0
-8.470623791317923	-21.3833704683326	0	0
8.0198282880702667	-19.408306320487316	0	0
8.4706237913178981	-21.383370468332611	0	0
1.1953329027975013	-20.965952858181513	0	0
1.6461284060451318	-22.941017006026808	0	0
15.646564129746437	-14.00660668876413	0	0
16.909665061427106	-15.590485159556497	0	0
10.173743752470227	-18.371035301775265	0	0
11.436844684150898	-19.954913772567632	0	0
20.174306053010227	-5.8307268225732249	0	0
21.999539782688245	-6.7097130601775605	0	0
17.137119879187317	-12.137508897890157	0	0
18.962353608865335	-13.016495135494495	0	0
17.836297328400015	4.7792214651061746	0	0
9.6592582628906829	2.5881904510252074	0	0
7.0710678118654764	7.0710678118654737	0	0
13.057075863293839	13.057075863293838	0	0
2.5881904510252092	9.6592582628906829	0	0
4.7792214651061782	17.836297328400015	0	0
-2.588190451025207	9.6592582628906829	0	0
-4.7792214651061737	17.836297328400015	0	0
-7.0710678118654737	7.0710678118654773	0	0
-13.057075863293836	13.057075863293841	0	0
-9.6592582628906829	2.588190451025207	0	0
-17.836297328400015	4.7792214651061737	0	0
-9.6592582628906829	-2.5881904510252061	0	0
-17.836297328400015	-4.7792214651061729	0	0
-7.0710678118654746	-7.0710678118654755	0	0
-13.057075863293838	-13.057075863293839	0	0
-2.5881904510252132	-9.6592582628906811	0	0
-4.7792214651061862	-17.836297328400011	0	0
2.5881904510252056	-9.6592582628906829	0	0
4.7792214651061711	-17.836297328400015	0	0
7.0710678118654755	-7.0710678118654746	0	0
13.057075863293839	-13.057075863293838	0	0
9.6592582628906811	-2.5881904510252132	0	0
17.836297328400011	-4.7792214651061862	0	0
30	0	0	0
-30	0	0	0
[NumSegments] = 112
3	1	-1	0	0	1
2	0	-1	0	0	1
6	8	-1	0	0	1
7	9	-1	0	0	1
10	11	-1	0	0	1
12	13	-1	0	0	1
14	15	-1	0	0	1
16	17	-1	0	0	1
18	19	-1	0	0	1
20	21	-1	0	0	1
22	23	-1	0	0	1
24	25	-1	0	0	1
26	27	-1	0	0	1
28	29	-1	0	0	1
30	31	-1	0	0	1
32	33	-1	0	0	1
34	35	-1	0	0	1
36	37	-1	0	0	1
38	39	-1	0	0	1
40	41	-1	0	0	1
42	43	-1	0	0	1
44	45	-1	0	0	1
46	47	-1	0	0	1
48	49	-1	0	0	1
50	51	-1	0	0	1
52	53	-1	0	0	1
54	55	-1	0	0	1
56	57	-1	0	0	1
58	59	-1	0	0	1
60	61	-1	0	0	1
62	63	-1	0	0	1
64	65	-1	0	0	1
66	67	-1	0	0	1
68	69	-1	0	0	1
70	71	-1	0	0	1
72	73	-1	0	0	1
74	75	-1	0	0	1
76	77	-1	0	0	1
78	79	-1	0	0	1
80	81	-1	0	0	1
82	83	-1	0	0	1
84	85	-1	0	0	1
86	87	-1	0	0	1
88	89	-1	0	0	1
90	91	-1	0	0	1
92	93	-1	0	0	1
94	95	-1	0	0	1
96	97	-1	0	0	1
100	101	-1	0	0	2
102	103	-1	0	0	2
104	105	-1	0	0	2
106	107	-1	0	0	2
108	109	-1	0	0	2
110	111	-1	0	0	2
112	113	-1	0	0	2
114	115	-1	0	0	2
116	117	-1	0	0	2
118	119	-1	0	0	2
120	121	-1	0	0	2
122	123	-1	0	0	2
124	125	-1	0	0	2
126	127	-1	0	0	2
128	129	-1	0	0	2
130	131	-1	0	0	2
132	133	-1	0	0	2
134	135	-1	0	0	2
136	137	-1	0	0	2
138	139	-1	0	0	2
140	141	-1	0	0	2
142	143	-1	0	0	2
144	145	-1	0	0	2
146	147	-1	0	0	2
148	149	-1	0	0	2
150	151	-1	0	0	2
152	153	-1	0	0	2
154	155	-1	0	0	2
28	161	-1	0	0	1
161	18	-1	0	0	1
20	159	-1	0	0	1
159	10	-1	0	0	1
12	156	-1	0	0	1
2	179	-1	0	0	1
179	90	-1	0	0	1
92	177	-1	0	0	1
177	82	-1	0	0	1
74	175	-1	0	0	1
175	84	-1	0	0	1
66	173	-1	0	0	1
173	76	-1	0	0	1
68	171	-1	0	0	1
171	58	-1	0	0	1
60	169	-1	0	0	1
169	50	-1	0	0	1
52	167	-1	0	0	1
167	42	-1	0	0	1
44	165	-1	0	0	1
165	34	-1	0	0	1
36	163	-1	0	0	1
163	26	-1	0	0	1
156	3	-1	0	0	1
157	156	-1	0	0	1
158	159	-1	0	0	1
160	161	-1	0	0	1
162	163	-1	0	0	1
164	165	-1	0	0	1
166	167	-1	0	0	1
168	169	-1	0	0	1
170	171	-1	0	0	1
172	173	-1	0	0	1
174	175	-1	0	0	1
176	177	-1	0	0	1
178	179	-1	0	0	1
[NumArcSegments] = 108
0	1	23	1	0	0	1
54	168	6.373073441321365	1	0	0	1
168	64	6.373073441321381	1	0	0	1
62	170	6.3730734413213659	1	0	0	1
170	72	6.3730734413213366	1	0	0	1
70	172	6.3730734413213623	1	0	0	1
172	80	6.3730734413213916	1	0	0	1
78	174	6.3730734413213685	1	0	0	1
174	88	6.3730734413213899	1	0	0	1
86	176	6.3730734413213659	1	0	0	1
176	96	6.3730734413213366	1	0	0	1
94	178	6.3730734413213677	1	0	0	1
178	7	6.3730734413214014	1	0	0	1
4	5	180	10	0	0	1
5	4	180	10	0	0	1
6	157	6.373073441321365	1	0	0	1
14	158	6.3730734413213677	1	0	0	1
158	24	6.3730734413213588	1	0	0	1
22	160	6.3730734413213614	1	0	0	1
160	32	6.3730734413213739	1	0	0	1
30	162	6.373073441321365	1	0	0	1
162	40	6.373073441321357	1	0	0	1
38	164	6.373073441321365	1	0	0	1
164	48	6.3730734413213721	1	0	0	1
46	166	6.373073441321365	1	0	0	1
166	56	6.3730734413213561	1	0	0	1
2	9	6.8492909951201666	1	0	0	1
8	3	6.849290995120171	1	0	0	1
13	11	23	1	0	0	1
12	17	6.8492909951201666	1	0	0	1
15	10	6.849290995120171	1	0	0	1
21	19	23	1	0	0	1
20	25	6.8492909951201666	1	0	0	1
23	18	6.849290995120171	1	0	0	1
29	27	23	1	0	0	1
28	33	6.8492909951201666	1	0	0	1
31	26	6.849290995120171	1	0	0	1
37	35	23	1	0	0	1
36	41	6.8492909951201666	1	0	0	1
39	34	6.849290995120171	1	0	0	1
45	43	23	1	0	0	1
44	49	6.8492909951201666	1	0	0	1
47	42	6.849290995120171	1	0	0	1
53	51	23	1	0	0	1
52	57	6.8492909951201666	1	0	0	1
55	50	6.849290995120171	1	0	0	1
61	59	23	1	0	0	1
60	65	6.8492909951201666	1	0	0	1
63	58	6.849290995120171	1	0	0	1
69	67	23	1	0	0	1
68	73	6.8492909951201666	1	0	0	1
71	66	6.849290995120171	1	0	0	1
77	75	23	1	0	0	1
76	81	6.8492909951201666	1	0	0	1
79	74	6.849290995120171	1	0	0	1
85	83	23	1	0	0	1
84	89	6.8492909951201666	1	0	0	1
87	82	6.849290995120171	1	0	0	1
93	91	23	1	0	0	1
92	97	6.8492909951201666	1	0	0	1
95	90	6.849290995120171	1	0	0	1
98	99	180	1	0	0	2
99	98	180	1	0	0	2
103	101	17.505858153765114	1	0	0	2
102	100	19.188136453720926	1	0	0	2
107	105	17.505858153765114	1	0	0	2
106	104	19.188136453720926	1	0	0	2
111	109	17.505858153765114	1	0	0	2
110	108	19.188136453720926	1	0	0	2
115	113	17.505858153765114	1	0	0	2
114	112	19.188136453720926	1	0	0	2
119	117	17.505858153765114	1	0	0	2
118	116	19.188136453720926	1	0	0	2
123	121	17.505858153765114	1	0	0	2
122	120	19.188136453720926	1	0	0	2
127	125	17.505858153765114	1	0	0	2
126	124	19.188136453720926	1	0	0	2
131	129	17.505858153765114	1	0	0	2
130	128	19.188136453720926	1	0	0	2
135	133	17.505858153765114	1	0	0	2
134	132	19.188136453720926	1	0	0	2
139	137	17.505858153765114	1	0	0	2
138	136	19.188136453720926	1	0	0	2
143	141	17.505858153765114	1	0	0	2
142	140	19.188136453720926	1	0	0	2
147	145	17.505858153765114	1	0	0	2
146	144	19.188136453720926	1	0	0	2
151	149	17.505858153765114	1	0	0	2
150	148	19.188136453720926	1	0	0	2
155	153	17.505858153765114	1	0	0	2
154	152	19.188136453720926	1	0	0	2
101	107	8.2084275605205956	1	0	0	2
105	111	8.2084275605206027	1	0	0	2
109	115	8.2084275605206063	1	0	0	2
113	119	8.2084275605205903	1	0	0	2
117	123	8.2084275605205885	1	0	0	2
121	127	8.2084275605206276	1	0	0	2
125	131	8.2084275605205814	1	0	0	2
129	135	8.2084275605206027	1	0	0	2
133	139	8.2084275605206223	1	0	0	2
137	143	8.208427560520553	1	0	0	2
141	147	8.2084275605206489	1	0	0	2
145	151	8.2084275605205992	1	0	0	2
149	155	8.2084275605205921	1	0	0	2
153	103	8.2084275605206152	1	0	0	2
157	16	6.3730734413213641	1	0	0	1
180	181	180	5	1	0	0
181	180	180	5	1	0	0
[NumHoles] = 0
[NumBlockLabels] = 43
22	0	1	0.25	0	0	2	1	0
19.821315093853222	9.5454422605862774	1	0.25	0	205.71428571428569	2	1	0
13.71677564089214	17.200292614296654	1	0.25	0	51.428571428571423	2	1	0
4.8954605470389208	21.448414068000119	1	0.25	0	257.14285714285711	2	1	0
-4.8954605470389101	21.448414068000119	1	0.25	0	102.85714285714285	2	1	0
-13.716775640892131	17.200292614296661	1	0.25	0	308.57142857142856	2	1	0
-19.821315093853219	9.545442260586281	1	0.25	0	154.28571428571428	2	1	0
-22	5.3290705182007514e-015	1	0.25	0	360	2	1	0
-19.821315093853226	-9.5454422605862668	1	0.25	0	205.71428571428569	2	1	0
-13.71677564089215	-17.200292614296647	1	0.25	0	411.42857142857139	2	1	0
-4.8954605470389403	-21.448414068000115	1	0.25	0	257.14285714285711	2	1	0
4.8954605470388932	-21.448414068000126	1	0.25	0	462.85714285714278	2	1	0
13.716775640892134	-17.200292614296657	1	0.25	0	308.57142857142856	2	1	0
19.821315093853219	-9.5454422605862845	1	0.25	0	514.28571428571422	2	1	0
7	4	3	0.25	0	0	1	1	0
16	3	4	0.25	1	0	0	7	0
16	6	4	0.25	1	0	0	7	0
12.356406460551019	10.598076211353316	4	0.25	1	0	0	-7	0
16.856406460551018	-2.8038475772933769	4	0.25	1	0	0	-7	0
0	0	2	1	0	0	0	1	0
5	19	2	0.10000000000000001	0	0	0	1	0
11	21	5	0.25	0	0	2	1	0
22	14	2	1	0	0	0	1	0
-16	-2.9999999999999982	4	0.25	1	0	0	-7	0
-16	-5.9999999999999982	4	0.25	1	0	0	-7	0
-12.356406460551021	-10.598076211353314	4	0.25	1	0	0	7	0
-16.856406460551018	2.8038475772933791	4	0.25	1	0	0	7	0
5.4019237886466858	15.356406460551018	4	0.25	2	0	0	-7	0
2.8038475772933698	16.856406460551018	4	0.25	2	0	0	-7	0
-2.9999999999999973	16	4	0.25	2	0	0	7	0
10.856406460551028	13.196152422706625	4	0.25	2	0	0	7	0
-5.4019237886466875	-15.356406460551018	4	0.25	2	0	0	7	0
-2.803847577293372	-16.856406460551018	4	0.25	2	0	0	7	0
2.9999999999999956	-16	4	0.25	2	0	0	-7	0
-10.85640646055103	-13.196152422706623	4	0.25	2	0	0	-7	0
10.598076211353318	-12.356406460551018	4	0.25	3	0	0	-7	0
13.196152422706634	-10.856406460551018	4	0.25	3	0	0	-7	0
15.356406460551021	-5.4019237886466831	4	0.25	3	0	0	7	0
5.9999999999999938	-16.000000000000004	4	0.25	3	0	0	7	0
-10.598076211353316	12.356406460551019	4	0.25	3	0	0	7	0
-13.196152422706632	10.856406460551019	4	0.25	3	0	0	7	0
-15.356406460551021	5.4019237886466849	4	0.25	3	0	0	-7	0
-5.999999999999992	16.000000000000004	4	0.25	3	0	0	-7	0
