[Format]      =  4.0
[Frequency]   =  0
[Precision]   =  1e-008
[MinAngle]    =  30
[Depth]       =  1
[LengthUnits] =  inches
[ProblemType] =  axisymmetric
[Coordinates] =  cartesian
[Comment]     =  "Add comments here."
[PointProps]   = 0
[BdryProps]   = 1
  <BeginBdry>
    <BdryName> = "Asymptotic Boundary Condition"
    <BdryType> = 2
    <A_0> = 0
    <A_1> = 0
    <A_2> = 0
    <Phi> = 0
    <c0> = 12226229.5442209
    <c1> = 0
    <Mu_ssd> = 0
    <Sigma_ssd> = 0
  <EndBdry>
[BlockProps]  = 5
  <BeginBlock>
    <BlockName> = "Air"
    <Mu_x> = 1
    <Mu_y> = 1
    <H_c> = 0
    <H_cAngle> = 0
    <J_re> = 0
    <J_im> = 0
    <Sigma> = 0
    <d_lam> = 0
    <Phi_h> = 0
    <Phi_hx> = 0
    <Phi_hy> = 0
    <LamType> = 0
    <LamFill> = 1
    <NStrands> = 0
    <WireD> = 0
    <BHPoints> = 0
  <EndBlock>
  <BeginBlock>
    <BlockName> = "1018 Steel"
    <Mu_x> = 529
    <Mu_y> = 529
    <H_c> = 0
    <H_cAngle> = 0
    <J_re> = 0
    <J_im> = 0
    <Sigma> = 0
    <d_lam> = 0
    <Phi_h> = 0
    <Phi_hx> = 0
    <Phi_hy> = 0
    <LamType> = 0
    <LamFill> = 1
    <NStrands> = 0
    <WireD> = 0
    <BHPoints> = 13
      0	0
      0.25030000000000002	238.73249999999999
      0.92500000000000004	795.77499999999998
      1.25	1591.55
      1.3899999999999999	2387.3249999999998
      1.5249999999999999	3978.875
      1.71	7957.75
      1.8700000000000001	15915.5
      1.9550000000000001	23873.25
      2.02	39788.75
      2.1099999999999999	79577.5
      2.2250000000000001	159155
      2.4300000000000002	318310
  <EndBlock>
  <BeginBlock>
    <BlockName> = "Ceramic 5"
    <Mu_x> = 1.8859999999999999
    <Mu_y> = 1.8859999999999999
    <H_c> = 191262
    <H_cAngle> = 0
    <J_re> = 0
    <J_im> = 0
    <Sigma> = 0
    <d_lam> = 0
    <Phi_h> = 0
    <Phi_hx> = 0
    <Phi_hy> = 0
    <LamType> = 0
    <LamFill> = 1
    <NStrands> = 0
    <WireD> = 0
    <BHPoints> = 25
      0	0
      0.10034800000000001	8233.8839250000001
      0.14876	16191.633925
      0.15992100000000001	24149.383924999998
      0.17108200000000001	32107.133924999998
      0.18224399999999999	40064.883925000002
      0.19340499999999999	48022.633925000002
      0.204566	55980.383925000002
      0.215728	63938.133925000002
      0.22688900000000001	71895.883925000002
      0.23805000000000001	79853.633925000002
      0.24921099999999999	87811.383925000002
      0.26037300000000002	95769.133925000002
      0.271534	103726.883925
      0.28269499999999997	111684.633925
      0.29385600000000001	119642.383925
      0.30501800000000001	127600.133925
      0.31617899999999999	135557.883925
      0.32734000000000002	143515.633925
      0.338501	151473.383925
      0.349663	159431.133925
      0.36082399999999998	167388.883925
      0.37198500000000001	175346.633925
      0.38314700000000002	183304.383925
      0.39430799999999999	191262.133925
  <EndBlock>
  <BeginBlock>
    <BlockName> = "Ceramic 8"
    <Mu_x> = 1.4384600000000001
    <Mu_y> = 1.4384600000000001
    <H_c> = 233568
    <H_cAngle> = 0
    <J_re> = 0
    <J_im> = 0
    <Sigma> = 0
    <d_lam> = 0
    <Phi_h> = 0
    <Phi_hx> = 0
    <Phi_hy> = 0
    <LamType> = 0
    <LamFill> = 1
    <NStrands> = 0
    <WireD> = 0
    <BHPoints> = 9
      0	0
      0.040029000000000002	1488.09925
      0.069106000000000001	5665.9179999999997
      0.087951000000000001	15231.1335
      0.11024	30247.407749999998
      0.15995000000000001	63009.464500000002
      0.24912000000000001	128493.78925
      0.32113999999999998	180339.326275
      0.39145000000000002	233567.92025
  <EndBlock>
  <BeginBlock>
    <BlockName> = "Coil"
    <Mu_x> = 1
    <Mu_y> = 1
    <H_c> = 0
    <H_cAngle> = 0
    <J_re> = 0
    <J_im> = 0
    <Sigma> = 0
    <d_lam> = 0
    <Phi_h> = 0
    <Phi_hx> = 0
    <Phi_hy> = 0
    <LamType> = 0
    <LamFill> = 1
    <NStrands> = 0
    <WireD> = 0
    <BHPoints> = 0
  <EndBlock>
[CircuitProps]  = 1
  <BeginCircuit>
    <CircuitName> = "Coil Current"
    <TotalAmps_re> = 1
    <TotalAmps_im> = 0
    <CircuitType> = 1
  <EndCircuit>
[NumPoints] = 21
0	0	0	0
1.25	0.125	0	0
1.25	0	0	0
1.375	0.5	0	0
1.375	0.125	0	0
0	0.625	0	0
1.25	0.625	0	0
1.25	0.5	0	0
0.34999999999999998	0.625	0	0
0.34999999999999998	0.5	0	0
0.41249999999999998	0.625	0	0
0.41249999999999998	0.5	0	0
0.34999999999999998	0.125	0	0
0.625	0.5	0	0
0.625	0.125	0	0
0	-2.25	0	0
0	2.875	0	0
0.36249999999999999	0.66249999999999998	0	0
0.36249999999999999	0.46250000000000002	0	0
0.39999999999999997	0.66249999999999998	0	0
0.39999999999999997	0.46250000000000002	0	0
[NumSegments] = 23
1	2	-1	0	0	0
0	2	-1	0	0	0
3	4	-1	0	0	0
11	13	-1	0	0	0
13	7	-1	0	0	0
1	4	-1	0	0	0
7	3	-1	0	0	0
6	7	-1	0	0	0
6	10	-1	0	0	0
8	5	-1	0	0	0
8	9	-1	0	0	0
10	11	-1	0	0	0
12	14	-1	0	0	0
14	1	-1	0	0	0
9	12	-1	0	0	0
5	0	-1	0	0	0
13	14	-1	0	0	0
16	5	-1	0	0	0
0	15	-1	0	0	0
17	18	-1	0	0	0
19	20	-1	0	0	0
17	19	-1	0	0	0
18	20	-1	0	0	0
[NumArcSegments] = 1
15	16	180	2.5	1	0	0
[NumHoles] = 0
[NumBlockLabels] = 5
0.70599999999999996	0.56850000000000001	2	0.02	0	0	0	1	0
0.71399999999999997	0.049000000000000002	2	0.02	0	0	0	1	0
1.1080000000000001	0.27049999999999996	3	0.02	0	90	0	1	0
0.55900000000000005	0.75949999999999995	1	0.040000000000000001	0	0	0	1	0
0.38	0.5575	5	0.01	1	0	0	100	0
