[Format]      =  4.0
[Frequency]   =  0
[Precision]   =  1e-008
[MinAngle]    =  30
[Depth]       =  200
[LengthUnits] =  millimeters
[ProblemType] =  planar
[Coordinates] =  cartesian
[ACSolver]    =  0
[Comment]     =  "Add comments here."
[PointProps]   = 0
[BdryProps]   = 2
  <BeginBdry>
    <BdryName> = "PrescribedAZero"
    <BdryType> = 0
    <A_0> = 0
    <A_1> = 0
    <A_2> = 0
    <Phi> = 0
    <c0> = 0
    <c0i> = 0
    <c1> = 0
    <c1i> = 0
    <Mu_ssd> = 0
    <Sigma_ssd> = 0
  <EndBdry>
  <BeginBdry>
    <BdryName> = "OpenBoundary"
    <BdryType> = 2
    <A_0> = 0
    <A_1> = 0
    <A_2> = 0
    <Phi> = 0
    <c0> = 4973591.9716217285
    <c0i> = 0
    <c1> = 0
    <c1i> = 0
    <Mu_ssd> = 0
    <Sigma_ssd> = 0
  <EndBdry>
[BlockProps]  = 3
  <BeginBlock>
    <BlockName> = "Copper"
    <Mu_x> = 1
    <Mu_y> = 1
    <H_c> = 0
    <H_cAngle> = 0
    <J_re> = 0
    <J_im> = 0
    <Sigma> = 58
    <d_lam> = 0
    <Phi_h> = 0
    <Phi_hx> = 0
    <Phi_hy> = 0
    <LamType> = 0
    <LamFill> = 1
    <NStrands> = 0
    <WireD> = 0
    <BHPoints> = 0
  <EndBlock>
  <BeginBlock>
    <BlockName> = "Air"
    <Mu_x> = 1
    <Mu_y> = 1
    <H_c> = 0
    <H_cAngle> = 0
    <J_re> = 0
    <J_im> = 0
    <Sigma> = 0
    <d_lam> = 0
    <Phi_h> = 0
    <Phi_hx> = 0
    <Phi_hy> = 0
    <LamType> = 0
    <LamFill> = 1
    <NStrands> = 0
    <WireD> = 0
    <BHPoints> = 0
  <EndBlock>
  <BeginBlock>
    <BlockName> = "Iron"
    <Mu_x> = 1
    <Mu_y> = 1
    <H_c> = 0
    <H_cAngle> = 0
    <J_re> = 0
    <J_im> = 0
    <Sigma> = 10
    <d_lam> = 0
    <Phi_h> = 0
    <Phi_hx> = 0
    <Phi_hy> = 0
    <LamType> = 0
    <LamFill> = 1
    <NStrands> = 0
    <WireD> = 0
    <BHPoints> = 38
      0	0
      0.38833000000000001	79.577472
      0.48252400000000001	100.182101
      0.59529299999999996	126.121793
      0.726634	158.77793
      0.87345300000000003	199.88957099999999
      1.0281009999999999	251.646061
      1.178099	316.80362000000002
      1.308718	398.83212800000001
      1.408663	502.09990099999999
      1.4756450000000001	632.10632499999997
      1.5169570000000001	795.77471500000001
      1.544297	1001.821011
      1.567545	1261.2179289999999
      1.592042	1587.779301
      1.619381	1998.89571
      1.649135	2516.4606050000002
      1.6799839999999999	3168.036204
      1.7105109999999999	3988.3212819999999
      1.7400770000000001	5020.9990129999996
      1.769441	6321.0632500000002
      1.8005549999999999	7957.747155
      1.8356250000000001	10018.210114
      1.8761209999999999	12612.179292999999
      1.9221870000000001	15877.793009999999
      1.972386	19988.957103000001
      2.0236740000000002	25164.606051999999
      2.0719500000000002	31680.362036999999
      2.1135380000000001	39883.212823000002
      2.1470829999999999	50209.990126999997
      2.1744270000000001	63210.632496999999
      2.1996039999999999	79577.471546000001
      2.2269369999999999	100182.101136
      2.2598500000000001	126121.79292599999
      2.3009309999999998	158777.930096
      2.3525969999999998	199889.57102999999
      2.4176359999999999	251646.06052200001
      2.4995159999999998	316803.62037000002
  <EndBlock>
[CircuitProps]  = 1
  <BeginCircuit>
    <CircuitName> = "Coil"
    <TotalAmps_re> = 40
    <TotalAmps_im> = 0
    <CircuitType> = 1
  <EndCircuit>
[NumPoints] = 29
-2	0	0	0
-6	4	0	0
-17	20	0	0
-45	20	0	0
-45	0	0	0
-2.3799999999999999	4.96	0	0
-2.3799999999999999	6.96	0	0
2	0	0	0
17	20	0	0
45.380000000000003	20	0	0
45.380000000000003	0	0	0
-39.810000000000002	20	0	0
-39.810000000000002	55	0	0
40.190000000000005	55	0	0
40.190000000000005	20	0	0
-59.810000000000002	0	0	0
-59.810000000000002	75	0	0
60.190000000000005	75	0	0
60.190000000000005	0	0	0
-34.810000000000002	25	0	0
-34.810000000000002	55	0	0
35.190000000000005	55	0	0
35.190000000000005	25	0	0
-34.810000000000002	75	0	0
-34.810000000000002	105	0	0
35.190000000000005	105	0	0
35.190000000000005	75	0	0
-159.81	0	0	0
160.19	0	0	0
[NumSegments] = 33
1	2	-1	0	0	0
2	11	-1	0	0	0
3	4	-1	0	0	0
4	0	0.5	1	0	1
5	6	-1	0	0	0
6	8	-1	0	0	0
8	14	-1	0	0	0
9	10	-1	0	0	0
10	7	0.5	1	0	1
0	7	0.5	1	0	1
11	3	-1	0	0	0
14	9	-1	0	0	0
11	12	-1	0	0	0
12	20	-1	0	0	0
13	14	-1	0	0	0
4	15	0.5	1	0	1
15	16	-1	0	0	0
16	23	-1	0	0	0
17	18	-1	0	0	0
10	18	0.5	1	0	1
20	21	-1	0	0	0
21	13	-1	0	0	0
23	26	-1	0	0	0
26	17	-1	0	0	0
19	20	-1	0	0	0
21	22	-1	0	0	0
22	19	-1	0	0	0
23	24	-1	0	0	0
24	25	-1	0	0	0
25	26	-1	0	0	0
1	6	-1	0	0	0
15	27	0.5	1	0	1
18	28	0.5	1	0	1
[NumArcSegments] = 3
0	1	90	0.20000000000000001	0	0	0
7	5	82.874983651098205	0.20000000000000001	0	0	0
28	27	180	2.5	2	0	2
[NumHoles] = 0
[NumBlockLabels] = 8
0	40	1	0.80000000000000004	1	0	0	65	0
0	90	1	0.80000000000000004	1	0	0	-65	0
-4	12	2	0.80000000000000004	0	0	0	1	0
0	1	2	0.040000000000000008	0	0	0	1	0
18	9	3	0.80000000000000004	0	0	0	1	0
-26	9	3	0.80000000000000004	0	0	0	1	0
0	65	3	0.80000000000000004	0	0	0	1	0
90	30	2	-1	0	0	0	1	0
